3a
                    3D
 Structure written by MMmdl.
 39 41  0  0  1  0            999 V2000
  -14.9816  -16.8848  -26.7516 N   0  0  0  0  0  0
  -15.4574  -17.7370  -25.9019 C   0  0  0  0  0  0
  -16.1716  -17.2489  -24.8288 N   0  0  0  0  0  0
  -16.4816  -15.9693  -24.5201 C   0  0  0  0  0  0
  -17.2339  -15.7049  -23.5851 O   0  0  0  0  0  0
  -15.3028  -19.1965  -26.0227 C   0  0  0  0  0  0
  -15.7965  -20.0495  -25.0297 C   0  0  0  0  0  0
  -15.5658  -21.4095  -25.0956 C   0  0  0  0  0  0
  -14.8063  -21.9515  -26.1302 C   0  0  0  0  0  0
  -14.3983  -21.1196  -27.1811 C   0  0  0  0  0  0
  -14.6397  -19.7519  -27.1232 C   0  0  0  0  0  0
  -14.3680  -23.4201  -26.0124 C   0  0  0  0  0  0
  -15.1526  -15.5000  -26.5810 C   0  0  0  0  0  0
  -15.8439  -14.9900  -25.4754 C   0  0  0  0  0  0
  -15.9352  -13.6164  -25.2666 C   0  0  0  0  0  0
  -15.3329  -12.7479  -26.1806 C   0  0  0  0  0  0
  -14.6736  -13.2481  -27.3060 C   0  0  0  0  0  0
  -14.5950  -14.6270  -27.5156 C   0  0  0  0  0  0
  -13.4015  -23.7780  -27.1663 C   0  0  0  0  0  0
  -15.6399  -24.3094  -26.0018 C   0  0  0  0  0  0
  -13.6628  -23.7212  -24.6935 C   0  0  0  0  0  0
  -16.6288  -17.9244  -24.2312 H   0  0  0  0  0  0
  -16.3148  -19.6807  -24.1585 H   0  0  0  0  0  0
  -15.9160  -22.0334  -24.2877 H   0  0  0  0  0  0
  -13.8381  -21.4999  -28.0219 H   0  0  0  0  0  0
  -14.2700  -19.1240  -27.9229 H   0  0  0  0  0  0
  -16.4540  -13.2266  -24.4025 H   0  0  0  0  0  0
  -15.3779  -11.6800  -26.0215 H   0  0  0  0  0  0
  -14.2191  -12.5644  -28.0101 H   0  0  0  0  0  0
  -14.0707  -15.0162  -28.3762 H   0  0  0  0  0  0
  -12.6996  -22.9672  -27.3675 H   0  0  0  0  0  0
  -13.9402  -23.9935  -28.0868 H   0  0  0  0  0  0
  -12.7933  -24.6547  -26.9473 H   0  0  0  0  0  0
  -16.4310  -23.8550  -25.4054 H   0  0  0  0  0  0
  -15.4994  -25.3013  -25.5827 H   0  0  0  0  0  0
  -16.0260  -24.4398  -27.0037 H   0  0  0  0  0  0
  -14.2630  -23.3726  -23.8575 H   0  0  0  0  0  0
  -12.6754  -23.2637  -24.6380 H   0  0  0  0  0  0
  -13.5382  -24.7984  -24.5916 H   0  0  0  0  0  0
  1  2  2  0  0  0
  1 13  1  0  0  0
  2  3  1  0  0  0
  2  6  1  0  0  0
  3  4  1  0  0  0
  3 22  1  0  0  0
  4  5  2  0  0  0
  4 14  1  0  0  0
  6  7  2  0  0  0
  6 11  1  0  0  0
  7  8  1  0  0  0
  7 23  1  0  0  0
  8  9  2  0  0  0
  8 24  1  0  0  0
  9 10  1  0  0  0
  9 12  1  0  0  0
 10 11  2  0  0  0
 10 25  1  0  0  0
 11 26  1  0  0  0
 12 19  1  0  0  0
 12 20  1  0  0  0
 12 21  1  0  0  0
 13 14  2  0  0  0
 13 18  1  0  0  0
 14 15  1  0  0  0
 15 16  2  0  0  0
 15 27  1  0  0  0
 16 17  1  0  0  0
 16 28  1  0  0  0
 17 18  2  0  0  0
 17 29  1  0  0  0
 18 30  1  0  0  0
 19 31  1  0  0  0
 19 32  1  0  0  0
 19 33  1  0  0  0
 20 34  1  0  0  0
 20 35  1  0  0  0
 20 36  1  0  0  0
 21 37  1  0  0  0
 21 38  1  0  0  0
 21 39  1  0  0  0
M  END
> <Name>
3a

> <IC50[nM]>
8.7

