3b
                    3D
 Structure written by MMmdl.
 39 41  0  0  1  0            999 V2000
  -14.5843  -14.7116  -27.5536 C   0  0  0  0  0  0
  -15.1563  -15.5168  -26.5725 C   0  0  0  0  0  0
  -14.6839  -13.3308  -27.4341 C   0  0  0  0  0  0
  -15.8704  -14.9642  -25.5050 C   0  0  0  0  0  0
  -14.9849  -16.8888  -26.6806 N   0  0  0  0  0  0
  -15.3785  -12.7815  -26.3579 C   0  0  0  0  0  0
  -15.9898  -13.5830  -25.3915 C   0  0  0  0  0  0
  -16.4951  -15.9110  -24.5008 C   0  0  0  0  0  0
  -16.1292  -17.2016  -24.7265 N   0  0  0  0  0  0
  -17.2749  -15.6059  -23.5994 O   0  0  0  0  0  0
  -15.4369  -17.7151  -25.8030 C   0  0  0  0  0  0
  -15.2562  -19.1608  -25.9636 C   0  0  0  0  0  0
  -14.5830  -19.6077  -27.1049 C   0  0  0  0  0  0
  -14.3265  -20.9447  -27.2876 C   0  0  0  0  0  0
  -14.7480  -21.8824  -26.3421 C   0  0  0  0  0  0
  -15.4530  -21.4469  -25.2145 C   0  0  0  0  0  0
  -15.7105  -20.0928  -25.0243 C   0  0  0  0  0  0
  -15.4673  -11.4547  -26.2714 F   0  0  0  0  0  0
  -14.3949  -23.3652  -26.5136 C   0  0  0  0  0  0
  -15.5854  -24.2010  -26.0389 C   0  0  0  0  0  0
  -13.1695  -23.7636  -25.6881 C   0  0  0  0  0  0
  -14.0156  -23.6918  -27.9583 C   0  0  0  0  0  0
  -14.0466  -15.1535  -28.3807 H   0  0  0  0  0  0
  -14.2301  -12.6806  -28.1699 H   0  0  0  0  0  0
  -16.5321  -13.1395  -24.5694 H   0  0  0  0  0  0
  -16.5900  -17.8635  -24.1166 H   0  0  0  0  0  0
  -14.2270  -18.9240  -27.8639 H   0  0  0  0  0  0
  -13.7744  -21.2114  -28.1733 H   0  0  0  0  0  0
  -15.7825  -22.1540  -24.4698 H   0  0  0  0  0  0
  -16.2395  -19.7878  -24.1323 H   0  0  0  0  0  0
  -16.4452  -24.1248  -26.7063 H   0  0  0  0  0  0
  -15.9076  -23.8895  -25.0475 H   0  0  0  0  0  0
  -15.2786  -25.2372  -25.9762 H   0  0  0  0  0  0
  -12.3282  -23.1165  -25.9090 H   0  0  0  0  0  0
  -12.7992  -24.7579  -25.8883 H   0  0  0  0  0  0
  -13.3872  -23.7048  -24.6291 H   0  0  0  0  0  0
  -13.2997  -22.9543  -28.2921 H   0  0  0  0  0  0
  -14.8831  -23.6893  -28.6146 H   0  0  0  0  0  0
  -13.5115  -24.6565  -28.0471 H   0  0  0  0  0  0
  1  2  2  0  0  0
  1  3  1  0  0  0
  1 23  1  0  0  0
  2  4  1  0  0  0
  2  5  1  0  0  0
  3  6  2  0  0  0
  3 24  1  0  0  0
  4  7  2  0  0  0
  4  8  1  0  0  0
  5 11  2  0  0  0
  6  7  1  0  0  0
  6 18  1  0  0  0
  7 25  1  0  0  0
  8  9  1  0  0  0
  8 10  2  0  0  0
  9 11  1  0  0  0
  9 26  1  0  0  0
 11 12  1  0  0  0
 12 13  2  0  0  0
 12 17  1  0  0  0
 13 14  1  0  0  0
 13 27  1  0  0  0
 14 15  2  0  0  0
 14 28  1  0  0  0
 15 16  1  0  0  0
 15 19  1  0  0  0
 16 17  2  0  0  0
 16 29  1  0  0  0
 17 30  1  0  0  0
 19 20  1  0  0  0
 19 21  1  0  0  0
 19 22  1  0  0  0
 20 31  1  0  0  0
 20 32  1  0  0  0
 20 33  1  0  0  0
 21 34  1  0  0  0
 21 35  1  0  0  0
 21 36  1  0  0  0
 22 37  1  0  0  0
 22 38  1  0  0  0
 22 39  1  0  0  0
M  END
> <Name>
3b

> <IC50[nM]>
3.6

