@<TRIPOS>MOLECULE
GLU
  221   224     1     0     0
SMALL
gas


@<TRIPOS>ATOM
      1 N           32.0750   -34.2860   -11.8530 n4        17 GLU       0.240543
      2 CA          31.2060   -33.1980   -11.3260 c3        17 GLU       0.051577
      3 C           31.9090   -31.8650   -11.5630 c         17 GLU       0.259726
      4 O           32.9990   -31.6320   -11.0490 o         17 GLU      -0.271222
      5 CB          30.9120   -33.4290    -9.8240 c3        17 GLU       0.003247
      6 CG          32.0780   -34.0130    -8.9800 c3        17 GLU      -0.007346
      7 CD          32.8390   -32.9760    -8.1390 c         17 GLU       0.041626
      8 OE1         32.3020   -32.5430    -7.0980 o         17 GLU      -0.550172
      9 OE2         33.9880   -32.6180    -8.4980 o         17 GLU      -0.550172
     10 H1          31.5020   -35.0210   -12.2070 hn        17 GLU       0.196889
     11 HA          30.3360   -33.2150   -11.8050 hx        17 GLU       0.095407
     12 HB2         30.6780   -32.5550    -9.4270 hc        17 GLU       0.033330
     13 HB3         30.1620   -34.0680    -9.7590 hc        17 GLU       0.033330
     14 HG2         31.6950   -34.6750    -8.3600 hc        17 GLU       0.033097
     15 HG3         32.7230   -34.4210    -9.6020 hc        17 GLU       0.033097
     16 H2          32.6470   -33.9230   -12.5850 hn        17 GLU       0.196889
     17 H3          32.6500   -34.6320   -11.1160 hn        17 GLU       0.196889
     18 N           31.3240   -31.0150   -12.3900 n         18 THR      -0.296601
     19 CA          31.9480   -29.7370   -12.6580 c3        18 THR       0.125230
     20 C           31.4190   -28.6610   -11.7070 c         18 THR       0.235451
     21 O           30.3760   -28.8480   -11.0620 o         18 THR      -0.275450
     22 CB          31.7330   -29.3160   -14.1070 c3        18 THR       0.078326
     23 OG1         30.3720   -28.9170   -14.2910 oh        18 THR      -0.390951
     24 CG2         32.0400   -30.4850   -15.0320 c3        18 THR      -0.036585
     25 H           30.4370   -31.3280   -12.8010 hn        18 THR       0.150511
     26 HA          32.9410   -29.8210   -12.5110 h1        18 THR       0.063304
     27 HB          32.3290   -28.5120   -14.3140 h1        18 THR       0.062282
     28 HG21        31.4770   -30.4210   -15.8590 hc        18 THR       0.025761
     29 HG22        33.0080   -30.4680   -15.2910 hc        18 THR       0.025761
     30 HG23        31.8400   -31.3490   -14.5650 hc        18 THR       0.025761
     31 HG1         29.7580   -29.7070   -14.1880 ho        18 THR       0.210557
     32 N           32.1430   -27.5420   -11.6250 n         19 PHE      -0.301670
     33 CA          31.7690   -26.4530   -10.7420 c3        19 PHE       0.103283
     34 C           30.3440   -26.0190   -10.9740 c         19 PHE       0.233165
     35 O           29.5490   -25.9920   -10.0430 o         19 PHE      -0.275551
     36 CB          32.6740   -25.2450   -10.9160 c3        19 PHE      -0.000462
     37 CG          32.2650   -24.0760   -10.0620 ca        19 PHE      -0.045659
     38 CD1         32.4380   -24.1160    -8.6850 ca        19 PHE      -0.058965
     39 CD2         31.6670   -22.9550   -10.6280 ca        19 PHE      -0.058965
     40 CE1         32.0210   -23.0550    -7.8890 ca        19 PHE      -0.061999
     41 CE2         31.2460   -21.8880    -9.8390 ca        19 PHE      -0.061999
     42 CZ          31.4210   -21.9350    -8.4680 ca        19 PHE      -0.062255
     43 H           32.9810   -27.5250   -12.2400 hn        19 PHE       0.150272
     44 HA          31.8200   -26.8100    -9.7980 h1        19 PHE       0.060862
     45 HB2         33.5890   -25.5060   -10.6550 hc        19 PHE       0.034050
     46 HB3         32.6300   -24.9610   -11.8590 hc        19 PHE       0.034050
     47 HD1         32.8640   -24.9070    -8.2590 ha        19 PHE       0.062568
     48 HD2         31.5370   -22.9140   -11.6210 ha        19 PHE       0.062568
     49 HE1         32.1530   -23.0990    -6.8920 ha        19 PHE       0.062285
     50 HE2         30.8130   -21.0850   -10.2770 ha        19 PHE       0.062285
     51 HZ          31.1250   -21.1800    -7.8890 ha        19 PHE       0.062275
     52 N           30.0300   -25.6930   -12.2250 n         20 SER      -0.300046
     53 CA          28.7030   -25.2370   -12.6060 c3        20 SER       0.122520
     54 C           27.5750   -26.1730   -12.2050 c         20 SER       0.235158
     55 O           26.5090   -25.7120   -11.8220 o         20 SER      -0.275463
     56 CB          28.6520   -24.9470   -14.0930 c3        20 SER       0.070313
     57 OG          28.2860   -23.5930   -14.2680 oh        20 SER      -0.393913
     58 H           30.8180   -25.7930   -12.9050 hn        20 SER       0.150343
     59 HA          28.5380   -24.3380   -12.1490 h1        20 SER       0.062997
     60 HB2         29.5450   -25.0940   -14.4840 h1        20 SER       0.058900
     61 HB3         27.9700   -25.5230   -14.5130 h1        20 SER       0.058900
     62 HG          28.6120   -23.0550   -13.4910 ho        20 SER       0.210162
     63 N           27.8090   -27.4780   -12.2840 n         21 ASP      -0.301634
     64 CA          26.8140   -28.4520   -11.8820 c3        21 ASP       0.104454
     65 C           26.6390   -28.3520   -10.3780 c         21 ASP       0.233144
     66 O           25.5190   -28.3000    -9.8730 o         21 ASP      -0.275551
     67 CB          27.2810   -29.8750   -12.2050 c3        21 ASP       0.014253
     68 CG          27.4790   -30.1120   -13.6920 c         21 ASP       0.043752
     69 OD1         26.8770   -29.3580   -14.5030 o         21 ASP      -0.550085
     70 OD2         28.2380   -31.0570   -14.0420 o         21 ASP      -0.550085
     71 H           28.7480   -27.7300   -12.6510 hn        21 ASP       0.150272
     72 HA          25.9470   -28.1850   -12.2970 h1        21 ASP       0.060908
     73 HB2         28.1470   -30.0270   -11.7400 hc        21 ASP       0.035315
     74 HB3         26.5920   -30.5080   -11.8690 hc        21 ASP       0.035315
     75 N           27.7610   -28.3240    -9.6650 n         22 LEU      -0.302073
     76 CA          27.7530   -28.2740    -8.2170 c3        22 LEU       0.099508
     77 C           27.1240   -27.0060    -7.6570 c         22 LEU       0.232774
     78 O           26.3200   -27.0640    -6.7160 o         22 LEU      -0.275565
     79 CB          29.1800   -28.4120    -7.6850 c3        22 LEU      -0.023489
     80 CG          29.8720   -29.7380    -7.3540 c3        22 LEU      -0.044868
     81 CD1         29.0420   -30.9160    -7.7820 c3        22 LEU      -0.062691
     82 CD2         31.2360   -29.7740    -8.0200 c3        22 LEU      -0.062691
     83 H           28.6340   -28.3410   -10.2360 hn        22 LEU       0.150257
     84 HA          27.2230   -29.0700    -7.8680 h1        22 LEU       0.060516
     85 HB2         29.8000   -27.9230    -8.3580 hc        22 LEU       0.029349
     86 HB3         29.2380   -27.8330    -6.8270 hc        22 LEU       0.029349
     87 HG          30.0320   -29.7760    -6.3620 hc        22 LEU       0.029788
     88 HD11        28.8850   -30.8840    -8.7730 hc        22 LEU       0.023310
     89 HD12        29.5160   -31.7710    -7.5550 hc        22 LEU       0.023310
     90 HD13        28.1560   -30.9010    -7.3120 hc        22 LEU       0.023310
     91 HD21        31.7940   -29.0140    -7.6840 hc        22 LEU       0.023310
     92 HD22        31.6920   -30.6390    -7.8060 hc        22 LEU       0.023310
     93 HD23        31.1280   -29.6930    -9.0120 hc        22 LEU       0.023310
     94 N           27.4770   -25.8710    -8.2510 n         23 TRP      -0.301757
     95 CA          27.0210   -24.5530    -7.8030 c3        23 TRP       0.103351
     96 C           25.5320   -24.2840    -8.0110 c         23 TRP       0.233099
     97 O           24.9190   -23.4980    -7.2970 o         23 TRP      -0.275552
     98 CB          27.8920   -23.4480    -8.4510 c3        23 TRP       0.001448
     99 CG          27.5850   -22.0550    -8.0090 cc        23 TRP      -0.022645
    100 CD1         26.7300   -21.1780    -8.6130 cd        23 TRP      -0.003278
    101 CD2         28.0900   -21.3820    -6.8420 ca        23 TRP       0.000258
    102 NE1         26.6590   -20.0020    -7.8920 na        23 TRP      -0.320299
    103 CE2         27.4780   -20.1010    -6.7990 ca        23 TRP       0.037423
    104 CE3         28.9900   -21.7310    -5.8300 ca        23 TRP      -0.052775
    105 CZ2         27.7380   -19.1770    -5.7840 ca        23 TRP      -0.040201
    106 CZ3         29.2510   -20.8090    -4.8250 ca        23 TRP      -0.061530
    107 CH2         28.6230   -19.5480    -4.8120 ca        23 TRP      -0.060363
    108 H           28.1150   -25.9970    -9.0740 hn        23 TRP       0.150270
    109 HA          27.2040   -24.4920    -6.8010 h1        23 TRP       0.060864
    110 HB2         28.8470   -23.6320    -8.2280 hc        23 TRP       0.034121
    111 HB3         27.7620   -23.4870    -9.4400 hc        23 TRP       0.034121
    112 HD1         26.2250   -21.3550    -9.4560 h4        23 TRP       0.079274
    113 HE1         26.1010   -19.2100    -8.1310 hn        23 TRP       0.152230
    114 HE3         29.4370   -22.6200    -5.8230 ha        23 TRP       0.062990
    115 HZ2         27.2840   -18.2830    -5.7870 ha        23 TRP       0.064286
    116 HZ3         29.8930   -21.0450    -4.1040 ha        23 TRP       0.062299
    117 HH2         28.8410   -18.9180    -4.0640 ha        23 TRP       0.062345
    118 N           24.9390   -24.9300    -8.9910 n         24 LYS      -0.302085
    119 CA          23.5300   -24.7160    -9.2310 c3        24 LYS       0.099268
    120 C           22.6460   -25.4420    -8.2190 c         24 LYS       0.232753
    121 O           21.4510   -25.1710    -8.1340 o         24 LYS      -0.275566
    122 CB          23.1800   -25.0830   -10.6710 c3        24 LYS      -0.025602
    123 CG          23.8050   -24.1140   -11.6760 c3        24 LYS      -0.046073
    124 CD          23.8030   -24.6490   -13.1000 c3        24 LYS      -0.013759
    125 CE          24.6570   -23.7640   -13.9990 c3        24 LYS      -0.038079
    126 NZ          24.7540   -24.3510   -15.3550 n4        24 LYS       0.231559
    127 H           25.5330   -25.5640    -9.5390 hn        24 LYS       0.150257
    128 HA          23.3300   -23.7220    -9.1730 h1        24 LYS       0.060505
    129 HB2         23.5270   -25.9890   -10.8590 hc        24 LYS       0.029088
    130 HB3         22.1970   -25.0460   -10.7750 hc        24 LYS       0.029088
    131 HG2         23.2910   -23.2500   -11.6530 hc        24 LYS       0.026951
    132 HG3         24.7540   -23.9290   -11.3990 hc        24 LYS       0.026951
    133 HD2         24.1840   -25.5620   -13.1020 hc        24 LYS       0.032059
    134 HD3         22.8750   -24.6470   -13.4450 hc        24 LYS       0.032059
    135 HE2         24.2360   -22.8610   -14.0550 hx        24 LYS       0.081283
    136 HE3         25.5700   -23.6870   -13.6030 hx        24 LYS       0.081283
    137 HZ1         24.4630   -25.3080   -15.3280 hn        24 LYS       0.196024
    138 HZ2         24.1640   -23.8430   -15.9830 hn        24 LYS       0.196024
    139 HZ3         25.7010   -24.3010   -15.6750 hn        24 LYS       0.196024
    140 N           23.2400   -26.3080    -7.4080 n         25 LEU      -0.302085
    141 CA          22.4850   -27.0350    -6.3940 c3        25 LEU       0.099507
    142 C           22.4030   -26.2950    -5.0670 c         25 LEU       0.232764
    143 O           22.1550   -26.9000    -4.0300 o         25 LEU      -0.275565
    144 CB          23.1130   -28.4010    -6.1530 c3        25 LEU      -0.023489
    145 CG          23.2010   -29.3210    -7.3660 c3        25 LEU      -0.044868
    146 CD1         23.8910   -30.6000    -6.9220 c3        25 LEU      -0.062691
    147 CD2         21.8080   -29.6050    -7.9450 c3        25 LEU      -0.062691
    148 H           24.2590   -26.4200    -7.5540 hn        25 LEU       0.150257
    149 HA          21.5400   -27.1770    -6.7390 h1        25 LEU       0.060516
    150 HB2         24.0420   -28.2580    -5.8210 hc        25 LEU       0.029349
    151 HB3         22.5720   -28.8710    -5.4610 hc        25 LEU       0.029349
    152 HG          23.7380   -28.8820    -8.0700 hc        25 LEU       0.029788
    153 HD11        23.3580   -31.0330    -6.1940 hc        25 LEU       0.023310
    154 HD12        23.9650   -31.2280    -7.6980 hc        25 LEU       0.023310
    155 HD13        24.8070   -30.3860    -6.5800 hc        25 LEU       0.023310
    156 HD21        21.3870   -28.7440    -8.2240 hc        25 LEU       0.023310
    157 HD22        21.8980   -30.2080    -8.7360 hc        25 LEU       0.023310
    158 HD23        21.2460   -30.0450    -7.2470 hc        25 LEU       0.023310
    159 N           22.6570   -24.9980    -5.0830 n         26 LEU      -0.302076
    160 CA          22.6160   -24.2020    -3.8620 c3        26 LEU       0.099728
    161 C           21.2350   -23.5830    -3.7330 c         26 LEU       0.235369
    162 O           20.6300   -23.2230    -4.7530 o         26 LEU      -0.275330
    163 CB          23.6520   -23.0690    -3.9180 c3        26 LEU      -0.023481
    164 CG          25.1310   -23.3450    -4.1630 c3        26 LEU      -0.044868
    165 CD1         25.8250   -22.0100    -4.2680 c3        26 LEU      -0.062691
    166 CD2         25.7230   -24.1770    -3.0380 c3        26 LEU      -0.062691
    167 H           22.8830   -24.6030    -6.0150 hn        26 LEU       0.150257
    168 HA          22.7700   -24.8040    -3.0810 h1        26 LEU       0.060524
    169 HB2         23.3460   -22.4200    -4.6460 hc        26 LEU       0.029350
    170 HB3         23.5860   -22.5600    -3.0360 hc        26 LEU       0.029350
    171 HG          25.2310   -23.8440    -5.0100 hc        26 LEU       0.029788
    172 HD11        25.7030   -21.4940    -3.4170 hc        26 LEU       0.023310
    173 HD12        26.8050   -22.1470    -4.4300 hc        26 LEU       0.023310
    174 HD13        25.4380   -21.4830    -5.0280 hc        26 LEU       0.023310
    175 HD21        25.2400   -25.0520    -2.9770 hc        26 LEU       0.023310
    176 HD22        26.6930   -24.3460    -3.2200 hc        26 LEU       0.023310
    177 HD23        25.6290   -23.6850    -2.1710 hc        26 LEU       0.023310
    178 N           20.7530   -23.3870    -2.4770 n         27 PRO      -0.288322
    179 CA          19.4420   -22.8010    -2.1720 c3        27 PRO       0.102157
    180 C           19.3290   -21.4580    -2.8770 c         27 PRO       0.232985
    181 O           20.1050   -20.5380    -2.6080 o         27 PRO      -0.275557
    182 CB          19.4910   -22.6460    -0.6600 c3        27 PRO      -0.024093
    183 CG          20.3690   -23.7740    -0.2450 c3        27 PRO      -0.035023
    184 CD          21.4800   -23.6610    -1.2260 c3        27 PRO       0.015054
    185 HA          18.7050   -23.4150    -2.4460 h1        27 PRO       0.060744
    186 HB2         19.8900   -21.7680    -0.4040 hc        27 PRO       0.029151
    187 HB3         18.5810   -22.7340    -0.2630 hc        27 PRO       0.029151
    188 HG2         20.6900   -23.6440     0.6850 hc        27 PRO       0.028350
    189 HG3         19.8920   -24.6400    -0.3340 hc        27 PRO       0.028350
    190 HD2         22.0950   -22.9070    -1.0100 h1        27 PRO       0.046979
    191 HD3         21.9980   -24.5100    -1.3040 h1        27 PRO       0.046979
    192 N           18.3680   -21.3730    -3.7940 n         28 GLU      -0.302076
    193 CA          18.1390   -20.1870    -4.6190 c3        28 GLU       0.099621
    194 C           17.3060   -19.0490    -4.0480 c         28 GLU       0.232661
    195 O           17.0390   -18.0620    -4.7330 o         28 GLU      -0.275567
    196 CB          17.6030   -20.6100    -5.9880 c3        28 GLU      -0.020576
    197 CG          16.5530   -21.6930    -5.9230 c3        28 GLU      -0.010868
    198 CD          16.3950   -22.4340    -7.2280 c         28 GLU       0.041465
    199 OE1         17.3410   -22.4260    -8.0540 o         28 GLU      -0.550175
    200 OE2         15.3150   -23.0430    -7.4180 o         28 GLU      -0.550175
    201 H           17.7800   -22.2400    -3.8770 hn        28 GLU       0.150257
    202 HA          19.0630   -19.8080    -4.9160 h1        28 GLU       0.060518
    203 HB2         17.1950   -19.8170    -6.4050 hc        28 GLU       0.029468
    204 HB3         18.3620   -20.9540    -6.5110 hc        28 GLU       0.029468
    205 HG2         16.8240   -22.3480    -5.2390 hc        28 GLU       0.032938
    206 HG3         15.6860   -21.2760    -5.7110 hc        28 GLU       0.032938
    207 N           16.9250   -19.1720    -2.7910 n         29 ASN      -0.305128
    208 CA          16.1470   -18.1470    -2.1120 c3        29 ASN       0.070725
    209 C           16.5480   -18.2610    -0.6690 c         29 ASN       0.062248
    210 O           17.1590   -19.2840    -0.3700 o         29 ASN      -0.548106
    211 CB          14.6340   -18.3930    -2.2560 c3        29 ASN       0.047962
    212 CG          14.0440   -17.7840    -3.5400 c         29 ASN       0.211300
    213 OXT         16.2960   -17.3510     0.1390 o         29 ASN      -0.548106
    214 H           17.2260   -20.0590    -2.3280 hn        29 ASN       0.150120
    215 HA          16.4640   -17.2730    -2.4420 h1        29 ASN       0.057330
    216 HB2         14.4740   -19.3740    -2.2760 hc        29 ASN       0.038802
    217 HB3         14.1720   -17.9820    -1.4770 hc        29 ASN       0.038802
    218 OD1         14.5360   -16.7730    -4.0710 o         29 ASN      -0.277904
    219 ND2         12.9630   -18.3870    -4.0230 n         29 ASN      -0.329084
    220 HD21        12.5770   -19.1810    -3.5540 hn        29 ASN       0.145486
    221 HD22        12.5310   -18.0450    -4.8600 hn        29 ASN       0.145486
@<TRIPOS>BOND
     1     1     2 1   
     2     1    10 1   
     3     1    16 1   
     4     1    17 1   
     5     2     3 1   
     6     2     5 1   
     7     2    11 1   
     8     3     4 2   
     9     3    18 1   
    10     5     6 1   
    11     5    12 1   
    12     5    13 1   
    13     6     7 1   
    14     6    14 1   
    15     6    15 1   
    16     7     8 1   
    17     7     9 1   
    18    18    19 1   
    19    18    25 1   
    20    19    20 1   
    21    19    22 1   
    22    19    26 1   
    23    20    21 2   
    24    20    32 1   
    25    22    23 1   
    26    22    24 1   
    27    22    27 1   
    28    23    31 1   
    29    24    28 1   
    30    24    29 1   
    31    24    30 1   
    32    32    33 1   
    33    32    43 1   
    34    33    34 1   
    35    33    36 1   
    36    33    44 1   
    37    34    35 2   
    38    34    52 1   
    39    36    37 1   
    40    36    45 1   
    41    36    46 1   
    42    37    38 ar  
    43    37    39 ar  
    44    38    40 ar  
    45    38    47 1   
    46    39    41 ar  
    47    39    48 1   
    48    40    42 ar  
    49    40    49 1   
    50    41    42 ar  
    51    41    50 1   
    52    42    51 1   
    53    52    53 1   
    54    52    58 1   
    55    53    54 1   
    56    53    56 1   
    57    53    59 1   
    58    54    55 2   
    59    54    63 1   
    60    56    57 1   
    61    56    60 1   
    62    56    61 1   
    63    57    62 1   
    64    63    64 1   
    65    63    71 1   
    66    64    65 1   
    67    64    67 1   
    68    64    72 1   
    69    65    66 2   
    70    65    75 1   
    71    67    68 1   
    72    67    73 1   
    73    67    74 1   
    74    68    69 1   
    75    68    70 1   
    76    75    76 1   
    77    75    83 1   
    78    76    77 1   
    79    76    79 1   
    80    76    84 1   
    81    77    78 2   
    82    77    94 1   
    83    79    80 1   
    84    79    85 1   
    85    79    86 1   
    86    80    81 1   
    87    80    82 1   
    88    80    87 1   
    89    81    88 1   
    90    81    89 1   
    91    81    90 1   
    92    82    91 1   
    93    82    92 1   
    94    82    93 1   
    95    94    95 1   
    96    94   108 1   
    97    95    96 1   
    98    95    98 1   
    99    95   109 1   
   100    96    97 2   
   101    96   118 1   
   102    98    99 1   
   103    98   110 1   
   104    98   111 1   
   105    99   100 2   
   106    99   101 1   
   107   100   102 1   
   108   100   112 1   
   109   101   103 ar  
   110   101   104 ar  
   111   102   103 1   
   112   102   113 1   
   113   103   105 ar  
   114   104   106 ar  
   115   104   114 1   
   116   105   107 ar  
   117   105   115 1   
   118   106   107 ar  
   119   106   116 1   
   120   107   117 1   
   121   118   119 1   
   122   118   127 1   
   123   119   120 1   
   124   119   122 1   
   125   119   128 1   
   126   120   121 2   
   127   120   140 1   
   128   122   123 1   
   129   122   129 1   
   130   122   130 1   
   131   123   124 1   
   132   123   131 1   
   133   123   132 1   
   134   124   125 1   
   135   124   133 1   
   136   124   134 1   
   137   125   126 1   
   138   125   135 1   
   139   125   136 1   
   140   126   137 1   
   141   126   138 1   
   142   126   139 1   
   143   140   141 1   
   144   140   148 1   
   145   141   142 1   
   146   141   144 1   
   147   141   149 1   
   148   142   143 2   
   149   142   159 1   
   150   144   145 1   
   151   144   150 1   
   152   144   151 1   
   153   145   146 1   
   154   145   147 1   
   155   145   152 1   
   156   146   153 1   
   157   146   154 1   
   158   146   155 1   
   159   147   156 1   
   160   147   157 1   
   161   147   158 1   
   162   159   160 1   
   163   159   167 1   
   164   160   161 1   
   165   160   163 1   
   166   160   168 1   
   167   161   162 2   
   168   161   178 1   
   169   163   164 1   
   170   163   169 1   
   171   163   170 1   
   172   164   165 1   
   173   164   166 1   
   174   164   171 1   
   175   165   172 1   
   176   165   173 1   
   177   165   174 1   
   178   166   175 1   
   179   166   176 1   
   180   166   177 1   
   181   178   179 1   
   182   178   184 1   
   183   179   180 1   
   184   179   182 1   
   185   179   185 1   
   186   180   181 2   
   187   180   192 1   
   188   182   183 1   
   189   182   186 1   
   190   182   187 1   
   191   183   184 1   
   192   183   188 1   
   193   183   189 1   
   194   184   190 1   
   195   184   191 1   
   196   192   193 1   
   197   192   201 1   
   198   193   194 1   
   199   193   196 1   
   200   193   202 1   
   201   194   195 2   
   202   194   207 1   
   203   196   197 1   
   204   196   203 1   
   205   196   204 1   
   206   197   198 1   
   207   197   205 1   
   208   197   206 1   
   209   198   199 1   
   210   198   200 1   
   211   207   208 1   
   212   207   214 1   
   213   208   209 1   
   214   208   211 1   
   215   208   215 1   
   216   209   210 1   
   217   209   213 1   
   218   211   212 1   
   219   211   216 1   
   220   211   217 1   
   221   212   218 2   
   222   212   219 1   
   223   219   220 1   
   224   219   221 1   
@<TRIPOS>SUBSTRUCTURE
     1 GLU         1 TEMP              0 ****  ****    0 ROOT
