@<TRIPOS>MOLECULE
BGC.pdb
 19 19 0 0 0
SMALL
GASTEIGER

@<TRIPOS>ATOM
      1  C2         5.7270   -0.3600   18.6130 C.3   310  BGC310      0.1785
      2  C3         5.9140   -0.0610   20.0890 C.3   310  BGC310      0.1591
      3  C4         7.4720   -0.0340   20.4130 C.3   310  BGC310      0.1537
      4  C5         8.1890    0.9590   19.4030 C.3   310  BGC310      0.1198
      5  C6         9.6750    0.9410   19.5730 C.3   310  BGC310      0.1117
      6  C1         6.4990    0.6150   17.7400 C.3   310  BGC310      0.2249
      7  O1         6.3840    0.3520   16.3470 O.3   310  BGC310     -0.1973
      8  O2         4.3570   -0.3230   18.2440 O.3   310  BGC310     -0.2229
      9  O3         5.3190   -1.0720   20.9170 O.3   310  BGC310     -0.2253
     10  O4         7.5320    0.4810   21.7220 O.3   310  BGC310     -0.2255
     11  O5         7.9390    0.5700   18.0530 O.3   310  BGC310     -0.3380
     12  O6        10.3750    1.7990   18.5980 O.3   310  BGC310     -0.2320
     13  H2         6.0670   -1.2620   18.4390 H     310  BGC310      0.0709
     14  H3         5.5190    0.8110   20.3010 H     310  BGC310      0.0685
     15  H4         7.8610   -0.9320   20.3650 H     310  BGC310      0.0683
     16  H5         7.8550    1.8680   19.5480 H     310  BGC310      0.0649
     17  H61        9.8940    1.2390   20.4690 H     310  BGC310      0.0618
     18  H62        9.9930    0.0300   19.4770 H     310  BGC310      0.0618
     19  H1         6.1690    1.5210   17.9150 H     310  BGC310      0.0969
@<TRIPOS>BOND
     1     7     6    1
     2     6    19    1
     3     6    11    1
     4     6     1    1
     5    11     4    1
     6     8     1    1
     7    13     1    1
     8    12     5    1
     9     1     2    1
    10     4    16    1
    11     4     5    1
    12     4     3    1
    13    18     5    1
    14     5    17    1
    15     2    14    1
    16     2     3    1
    17     2     9    1
    18    15     3    1
    19     3    10    1
